Version 4
SHEET 1 880 680
WIRE 240 80 32 80
WIRE 32 144 32 80
WIRE 240 192 240 160
WIRE 32 256 32 224
WIRE 240 304 240 272
FLAG 32 256 0
FLAG 240 304 0
SYMBOL voltage 32 128 R0
WINDOW 123 0 0 Left 0
WINDOW 39 0 0 Left 0
SYMATTR InstName V1
SYMATTR Value 1
SYMBOL res 224 64 R0
SYMATTR InstName R1
SYMATTR Value {upper}
SYMBOL res 224 176 R0
SYMATTR InstName R2
SYMATTR Value {lower}
TEXT 16 24 Left 2 !.step param upper list 1k 10k 100k
TEXT 16 0 Left 2 !.step param lower 1k 10k 1k
TEXT -8 304 Left 2 !.tran 1
